electric-grid/synthetic/texas2000/Texas2000_June2016.raw
 0,    100.00, 32, 0, 0, 60.00       / June 08, 2016 16:24:06; Simulator Version 20 Beta; BuildDate 2016_6_7


    1,'Glen Rose ~4',  13.8000,3,   1,   1,   1,1.04000,   0.0000
    2,'Dallas 115  ', 115.0000,1,   1,   1,   1,0.98104, -16.8377
    3,'Allen 115   ', 115.0000,1,   1,   1,   1,0.99416, -14.8409
    4,'Carrollton~2', 115.0000,1,   1,   1,   1,0.98622, -16.2613
    5,'Carrollton~3', 115.0000,1,   1,   1,   1,0.98304, -16.7644
    6,'Celina 115  ', 115.0000,1,   1,   1,   1,0.98656, -14.2171
    7,'The Colony~1', 115.0000,1,   1,   1,   1,0.98151, -16.8064
    8,'Allen 2 115 ', 115.0000,1,   1,   1,   1,0.98846, -15.5092
    9,'Coppell 115 ', 115.0000,1,   1,   1,   1,0.98742, -16.1325
   10,'Denison 115 ', 115.0000,1,   2,   1,   1,1.00759,  -8.9785
   11,'Denison 2 ~1', 115.0000,1,   2,   1,   1,0.99908, -10.5467
   12,'Flower Mou~1', 115.0000,1,   1,   1,   1,0.97896, -17.7265
   13,'Plano 115   ', 115.0000,1,   1,   1,   1,0.98908, -15.6880
   14,'Plano 2 115 ', 115.0000,1,   1,   1,   1,0.98696, -16.0295
   15,'Flower Mou~2', 115.0000,1,   1,   1,   1,0.97787, -17.3419
   16,'Rockwall 115', 115.0000,1,   1,   1,   1,0.97881, -16.1244
   17,'Frisco 115  ', 115.0000,1,   1,   1,   1,0.97984, -16.7882
   18,'Frisco 2 115', 115.0000,1,   1,   1,   1,0.98223, -15.4629
   19,'Irving 115  ', 115.0000,1,   1,   1,   1,0.98814, -15.0834
   20,'Irving 2 115', 115.0000,1,   1,   1,   1,0.98647, -15.4301
   21,'Garland 115 ', 115.0000,1,   1,   1,   1,0.98161, -16.6212
   22,'Garland 2 ~1', 115.0000,1,   1,   1,   1,0.97915, -16.9199
   23,'Garland 3 ~1', 115.0000,1,   1,   1,   1,0.98129, -16.6488
   24,'Garland 4 ~1', 115.0000,1,   1,   1,   1,0.98616, -16.1616
   25,'Rowlett 115 ', 115.0000,1,   1,   1,   1,0.98894, -15.8460
   26,'Grand Prai~1', 115.0000,1,   1,   1,   1,0.98232, -15.5511
   27,'Grand Prai~2', 115.0000,1,   1,   1,   1,0.99028, -14.7117
   28,'Grand Prai~5', 115.0000,1,   1,   1,   1,0.98411, -15.5070
   29,'Grand Prai~6', 115.0000,1,   1,   1,   1,0.98208, -15.0236
   30,'Lewisville~1', 115.0000,1,   1,   1,   1,0.98122, -16.9683
   31,'Gunter 115  ', 115.0000,1,   2,   1,   1,0.98426, -14.6427
   32,'Irving 3 115', 115.0000,1,   1,   1,   1,0.98732, -15.4641
   33,'Lake Dalla~1', 115.0000,1,   1,   1,   1,0.97649, -18.0849
   34,'Little Elm~1', 115.0000,1,   1,   1,   1,0.97014, -17.6245
   35,'Mckinney 115', 115.0000,1,   1,   1,   1,0.99916, -13.5633
   36,'Mckinney 2~1', 115.0000,1,   1,   1,   1,0.98043, -15.5816
   37,'Mckinney 3~1', 115.0000,1,   1,   1,   1,0.99260, -14.1623
   38,'Plano 3 115 ', 115.0000,1,   1,   1,   1,0.98924, -15.5789
   39,'Plano 4 115 ', 115.0000,1,   1,   1,   1,0.98589, -16.2069
   40,'Pottsboro ~1', 115.0000,1,   2,   1,   1,1.00445,  -9.7525
   41,'Lewisville~2', 115.0000,1,   1,   1,   1,0.97543, -18.3642
   42,'Prosper 115 ', 115.0000,1,   1,   1,   1,0.99126, -14.6799
   43,'Richardson~1', 115.0000,1,   1,   1,   1,0.98390, -16.5148
   44,'Rockwall 2~1', 115.0000,1,   1,   1,   1,0.98791, -15.3083
   45,'Rowlett 2 ~1', 115.0000,1,   1,   1,   1,0.98598, -16.5120
   46,'Sherman 115 ', 115.0000,1,   2,   1,   1,0.99697, -10.9031
   47,'Sherman 2 ~1', 115.0000,1,   2,   1,   1,0.99418, -11.7289
   48,'Plano 5 115 ', 115.0000,1,   1,   1,   1,0.99445, -14.9473
   49,'Wylie 115   ', 115.0000,1,   1,   1,   1,0.99388, -14.3940
   50,'Wylie 2 115 ', 115.0000,1,   1,   1,   1,0.99753, -13.3175
   51,'Barry 115   ', 115.0000,1,   1,   1,   1,1.02000, -10.3422
   52,'Canton 115  ', 115.0000,1,   3,   1,   1,1.00266, -15.5338
   53,'Cedar Hill~1', 115.0000,1,   1,   1,   1,0.98013, -16.0308
   54,'Chatfield ~1', 115.0000,1,   1,   1,   1,1.00791, -11.9934
   55,'Corsicana ~1', 115.0000,1,   1,   1,   1,1.01050, -11.1541
   56,'Corsicana ~2', 115.0000,1,   1,   1,   1,1.02022,  -9.9111
   57,'Crandall 115', 115.0000,1,   1,   1,   1,0.99400, -16.4022
   58,'Desoto 115  ', 115.0000,1,   1,   1,   1,1.00873, -17.0066
   59,'Duncanvill~1', 115.0000,1,   1,   1,   1,0.97911, -16.2141
   60,'Edgewood 115', 115.0000,1,   3,   1,   1,1.00801, -15.0241
   61,'Ennis 115   ', 115.0000,1,   1,   1,   1,0.99571, -13.4830
   62,'Eustace 115 ', 115.0000,1,   3,   1,   1,0.99864, -15.2776
   63,'Ferris 115  ', 115.0000,1,   1,   1,   1,0.99289, -15.0162
   64,'Forney 115  ', 115.0000,1,   1,   1,   1,1.00294, -17.0978
   65,'Fruitvale ~1', 115.0000,1,   3,   1,   1,1.01083, -14.5846
   66,'Fruitvale ~2', 115.0000,1,   1,   1,   1,0.99070, -15.8412
   67,'Lancaster ~1', 115.0000,1,   1,   1,   1,0.98324, -17.1820
   68,'Caddo Mill~1', 115.0000,1,   1,   1,   1,0.98997, -15.4773
   69,'Grand Sali~1', 115.0000,1,   3,   1,   1,1.01230, -14.0434
   70,'Hutchins 115', 115.0000,1,   1,   1,   1,0.98603, -16.0591
   71,'Kaufman 115 ', 115.0000,1,   1,   1,   1,0.97781, -16.7461
   72,'Kemp 115    ', 115.0000,1,   1,   1,   1,0.99583, -14.2718
   73,'Kerens 115  ', 115.0000,1,   1,   1,   1,1.00044, -13.9317
   74,'Lancaster ~2', 115.0000,1,   1,   1,   1,0.98241, -16.7235
   75,'Mabank 115  ', 115.0000,1,   1,   1,   1,0.98891, -16.1472
   76,'Malakoff 115', 115.0000,1,   3,   1,   1,1.02729, -12.5790
   77,'Mesquite 115', 115.0000,1,   1,   1,   1,0.97517, -17.2248
   78,'Mesquite 2~1', 115.0000,1,   1,   1,   1,0.97593, -17.2452
   79,'Palmer 115  ', 115.0000,1,   1,   1,   1,1.00437, -13.5170
   80,'Powell 115  ', 115.0000,1,   1,   1,   1,1.00516, -12.2594
   81,'Red Oak 115 ', 115.0000,1,   1,   1,   1,0.97424, -16.1520
   82,'Rice 115    ', 115.0000,1,   1,   1,   1,1.00273, -12.6120
   83,'Mabank 2 115', 115.0000,1,   1,   1,   1,1.00874, -14.3415
   84,'Scurry 115  ', 115.0000,1,   1,   1,   1,1.00328, -14.1922
   85,'Seagoville~1', 115.0000,1,   1,   1,   1,0.99035, -15.7820
   86,'Terrell 115 ', 115.0000,1,   1,   1,   1,0.99898, -15.1919
   87,'Terrell 2 ~1', 115.0000,1,   1,   1,   1,1.00455, -12.6834
   88,'Trinidad 115', 115.0000,1,   3,   1,   1,1.02555, -12.8392
   89,'Trinidad 2~1', 115.0000,1,   1,   1,   1,0.99630, -15.7236
   90,'Waxahachie~1', 115.0000,1,   1,   1,   1,0.99958, -14.7164
   91,'Lavon 115   ', 115.0000,1,   1,   1,   1,0.99068, -14.5405
   92,'Waxahachie~2', 115.0000,1,   1,   1,   1,0.99938, -14.2987
   93,'Wills Poin~1', 115.0000,1,   3,   1,   1,1.00371, -15.7288
   94,'Nevada 115  ', 115.0000,1,   1,   1,   1,0.99466, -13.6076
   95,'Balch Spri~1', 115.0000,1,   1,   1,   1,0.97319, -17.0324
   96,'Mesquite 3~1', 115.0000,1,   1,   1,   1,1.00192, -17.9694
   97,'Sunnyvale ~1', 115.0000,1,   1,   1,   1,1.00182, -17.4584
   98,'Royse City~1', 115.0000,1,   1,   1,   1,0.99345, -16.2886
   99,'Dallas 2 115', 115.0000,1,   1,   1,   1,0.97968, -16.5654
  100,'Dallas 3 115', 115.0000,1,   1,   1,   1,0.98619, -15.4900
  101,'Dallas 4 115', 115.0000,1,   1,   1,   1,0.97977, -16.5200
  102,'Dallas 5 115', 115.0000,1,   1,   1,   1,0.98146, -16.2891
  103,'Dallas 6 115', 115.0000,1,   1,   1,   1,0.97589, -17.0885
  104,'Dallas 7 115', 115.0000,1,   1,   1,   1,0.97913, -16.1920
  105,'Dallas 8 115', 115.0000,1,   1,   1,   1,0.98703, -15.3877
  106,'Dallas 9 115', 115.0000,1,   1,   1,   1,0.97815, -17.1398
  107,'Dallas 10 ~1', 115.0000,1,   1,   1,   1,0.97809, -16.7683
  108,'Dallas 11 ~1', 115.0000,1,   1,   1,   1,0.97627, -17.2392
  109,'Dallas 12 ~1', 115.0000,1,   1,   1,   1,0.98316, -16.5833
  110,'Dallas 13 ~1', 115.0000,1,   1,   1,   1,0.98275, -16.1818
  111,'Dallas 14 ~1', 115.0000,1,   1,   1,   1,0.97573, -17.1127
  112,'Dallas 15 ~1', 115.0000,1,   1,   1,   1,0.97796, -16.9411
  113,'Dallas 16 ~1', 115.0000,1,   1,   1,   1,0.97893, -16.7958
  114,'Dallas 17 ~1', 115.0000,1,   1,   1,   1,0.98237, -17.5601
  115,'Dallas 18 ~1', 115.0000,1,   1,   1,   1,0.98421, -16.5317
  116,'Greenville~1', 115.0000,1,   1,   1,   1,0.99110, -13.4494
  117,'Greenville~2', 115.0000,1,   1,   1,   1,1.00246, -14.0121
  118,'Princeton ~1', 115.0000,1,   1,   1,   1,0.99153, -14.5865
  119,'Anna 115    ', 115.0000,1,   1,   1,   1,1.00175, -12.0312
  120,'Arthur Cit~1', 115.0000,1,   2,   1,   1,0.99769, -11.8794
  121,'Bagwell 115 ', 115.0000,1,   2,   1,   1,0.99693, -12.4458
  122,'Bagwell 2 ~1', 115.0000,1,   2,   1,   1,0.99236, -12.1887
  123,'Bells 115   ', 115.0000,1,   2,   1,   1,0.99618, -11.3202
  124,'Ben Frankl~1', 115.0000,1,   1,   1,   1,1.01780,  -6.9466
  125,'Blossom 115 ', 115.0000,1,   2,   1,   1,0.99696, -11.5796
  126,'Bogata 115  ', 115.0000,1,   2,   1,   1,0.99848,  -9.3201
  127,'Bonham 115  ', 115.0000,1,   2,   1,   1,0.99034, -11.5473
  128,'Brashear 115', 115.0000,1,   3,   1,   1,1.00910, -10.3216
  129,'Brookston ~1', 115.0000,1,   2,   1,   1,1.00437,  -9.8116
  130,'Campbell 115', 115.0000,1,   1,   1,   1,1.00104, -11.8123
  131,'Celeste 115 ', 115.0000,1,   1,   1,   1,1.00310, -11.9331
  132,'Blue Ridge~1', 115.0000,1,   1,   1,   1,1.01674,  -9.7198
  133,'Clarksvill~1', 115.0000,1,   2,   1,   1,0.99474, -12.7496
  134,'Commerce 115', 115.0000,1,   1,   1,   1,1.00773,  -8.8815
  135,'Como 115    ', 115.0000,1,   3,   1,   1,1.01297, -11.5757
  136,'Cooper 115  ', 115.0000,1,   1,   1,   1,1.02575,  -5.5591
  137,'Cumby 115   ', 115.0000,1,   3,   1,   1,1.00954,  -9.8599
  138,'Deport 115  ', 115.0000,1,   2,   1,   1,1.00768,  -8.1683
  139,'Detroit 115 ', 115.0000,1,   2,   1,   1,0.99586, -11.9962
  140,'Dike 115    ', 115.0000,1,   3,   1,   1,1.00545,  -9.3767
  141,'Dodd City ~1', 115.0000,1,   2,   1,   1,0.99424, -11.0928
  142,'Ector 115   ', 115.0000,1,   2,   1,   1,0.99450, -12.0338
  143,'Emory 115   ', 115.0000,1,   3,   1,   1,0.99409, -15.3787
  144,'Farmersvil~1', 115.0000,1,   1,   1,   1,0.99225, -15.3843
  145,'Honey Grov~1', 115.0000,1,   2,   1,   1,1.00113, -10.2617
  146,'Ivanhoe 115 ', 115.0000,1,   2,   1,   1,0.99263, -11.4973
  147,'Klondike 115', 115.0000,1,   1,   1,   1,1.01604,  -7.3275
  148,'Ladonia 115 ', 115.0000,1,   2,   1,   1,1.00939,  -9.0247
  149,'Lake Creek~1', 115.0000,1,   1,   1,   1,1.01572,  -7.0298
  150,'Leesburg 115', 115.0000,1,   3,   1,   1,1.01557, -13.2039
  151,'Leonard 115 ', 115.0000,1,   2,   1,   1,0.99149, -12.5929
  152,'Lone Oak 115', 115.0000,1,   1,   1,   1,0.99620, -13.9524
  153,'Melissa 115 ', 115.0000,1,   1,   1,   1,0.99436, -12.9833
  154,'Mount Plea~1', 115.0000,1,   3,   1,   1,0.98392, -11.2401
  155,'Mount Vern~1', 115.0000,1,   3,   1,   1,0.99454, -10.6420
  156,'Howe 115    ', 115.0000,1,   2,   1,   1,0.99374, -12.8194
  157,'Paris 115   ', 115.0000,1,   2,   1,   1,0.99920, -11.0131
  158,'Paris 2 115 ', 115.0000,1,   2,   1,   1,1.00050, -10.8250
  159,'Pattonvill~1', 115.0000,1,   2,   1,   1,1.00876,  -8.1243
  160,'Pecan Gap ~1', 115.0000,1,   1,   1,   1,1.01545,  -7.6683
  161,'Petty 115   ', 115.0000,1,   2,   1,   1,1.00656,  -9.1997
  162,'Pickton 115 ', 115.0000,1,   3,   1,   1,1.01328, -12.0381
  163,'Point 115   ', 115.0000,1,   3,   1,   1,0.99934, -14.8610
  164,'Powderly 115', 115.0000,1,   2,   1,   1,1.00076, -11.0178
  165,'Quinlan 115 ', 115.0000,1,   1,   1,   1,1.00361, -16.2484
  166,'Quinlan 2 ~1', 115.0000,1,   2,   1,   1,0.99286, -12.3328
  167,'Ravenna 115 ', 115.0000,1,   2,   1,   1,0.99397, -11.9178
  168,'Roxton 115  ', 115.0000,1,   2,   1,   1,1.01333,  -7.8397
  169,'Saltillo 115', 115.0000,1,   3,   1,   1,1.00132, -10.0884
  170,'Savoy 115   ', 115.0000,1,   2,   1,   1,0.99511, -11.7292
  171,'Scroggins ~1', 115.0000,1,   3,   1,   1,1.01326, -13.2733
  172,'Sulphur Bl~1', 115.0000,1,   3,   1,   1,1.00995,  -8.3212
  173,'Sulphur Sp~1', 115.0000,1,   3,   1,   1,1.00051, -10.1791
  174,'Sumner 115  ', 115.0000,1,   2,   1,   1,0.99809, -11.6276
  175,'Talco 115   ', 115.0000,1,   3,   1,   1,0.99306, -10.0311
  176,'Telephone ~1', 115.0000,1,   2,   1,   1,0.99389, -11.4326
  177,'Telephone ~2', 115.0000,1,   2,   1,   1,0.99598, -12.2506
  178,'Trenton 115 ', 115.0000,1,   2,   1,   1,0.99300, -13.6349
  179,'Whitewrigh~1', 115.0000,1,   2,   1,   1,0.99384, -12.9597
  180,'Windom 115  ', 115.0000,1,   2,   1,   1,0.99745, -10.6980
  181,'Windom 2 115', 115.0000,1,   3,   1,   1,0.99088, -10.9089
  182,'Van Alstyn~1', 115.0000,1,   2,   1,   1,0.99149, -13.0899
  183,'Wolfe City~1', 115.0000,1,   1,   1,   1,1.00533, -10.4862
  184,'Yantis 115  ', 115.0000,1,   3,   1,   1,1.01110, -11.4446
  185,'Annona 115  ', 115.0000,1,   2,   1,   1,0.99463, -12.8041
  186,'Avery 115   ', 115.0000,1,   2,   1,   1,0.99472, -12.7952
  187,'Cookville ~1', 115.0000,1,   3,   1,   1,1.00156, -13.3178
  188,'Omaha 115   ', 115.0000,1,   3,   1,   1,1.00306, -13.3725
  189,'Henderson ~1', 115.0000,1,   3,   1,   1,1.01347, -13.9195
  190,'Henderson ~2', 115.0000,1,   3,   1,   1,1.01605, -13.2063
  191,'Laneville ~1', 115.0000,1,   3,   1,   1,1.02046, -12.7788
  192,'Long Branc~1', 115.0000,1,   3,   1,   1,1.02504, -12.8426
  193,'Mount Ente~1', 115.0000,1,   3,   1,   1,1.03196, -11.5745
  194,'Overton 115 ', 115.0000,1,   3,   1,   1,1.00916, -14.4642
  195,'Pittsburg ~1', 115.0000,1,   3,   1,   1,1.02168, -13.7582
  196,'Tatum 115   ', 115.0000,1,   3,   1,   1,1.01532, -13.8086
  197,'Tyler 115   ', 115.0000,1,   3,   1,   1,1.01304, -13.8574
  198,'Tyler 2 115 ', 115.0000,1,   3,   1,   1,1.01279, -13.9563
  199,'Tyler 3 115 ', 115.0000,1,   3,   1,   1,1.02054, -13.3018
  200,'Tyler 4 115 ', 115.0000,1,   3,   1,   1,1.00458, -14.8749
...
0 / END OF BUS DATA, BEGIN LOAD DATA
    2,'1 ',1,   1,   1,   249.850,    71.207,     0.000,     0.000,     0.000,     0.000,   1,1
    3,'1 ',1,   1,   1,   153.917,    43.866,     0.000,     0.000,     0.000,     0.000,   1,1
    4,'1 ',1,   1,   1,   183.213,    52.216,     0.000,     0.000,     0.000,     0.000,   1,1
    5,'1 ',1,   1,   1,   125.844,    35.866,     0.000,     0.000,     0.000,     0.000,   1,1
    6,'1 ',1,   1,   1,    21.415,     6.103,     0.000,     0.000,     0.000,     0.000,   1,1
    7,'1 ',1,   1,   1,   169.321,    48.256,     0.000,     0.000,     0.000,     0.000,   1,1
    8,'1 ',1,   1,   1,    73.977,    21.083,     0.000,     0.000,     0.000,     0.000,   1,1
    9,'1 ',1,   1,   1,   179.796,    51.242,     0.000,     0.000,     0.000,     0.000,   1,1
   10,'1 ',1,   2,   1,    40.649,    11.585,     0.000,     0.000,     0.000,     0.000,   1,1
   11,'1 ',1,   2,   1,    14.935,     4.256,     0.000,     0.000,     0.000,     0.000,   1,1
   12,'1 ',1,   1,   1,    54.958,    15.663,     0.000,     0.000,     0.000,     0.000,   1,1
   13,'1 ',1,   1,   1,   234.941,    66.958,     0.000,     0.000,     0.000,     0.000,   1,1
   14,'1 ',1,   1,   1,   202.881,    57.821,     0.000,     0.000,     0.000,     0.000,   1,1
   15,'1 ',1,   1,   1,   102.935,    29.336,     0.000,     0.000,     0.000,     0.000,   1,1
   16,'1 ',1,   1,   1,    68.222,    19.443,     0.000,     0.000,     0.000,     0.000,   1,1
   17,'1 ',1,   1,   1,   177.277,    50.524,     0.000,     0.000,     0.000,     0.000,   1,1
   18,'1 ',1,   1,   1,   115.920,    33.037,     0.000,     0.000,     0.000,     0.000,   1,1
   19,'1 ',1,   1,   1,    67.773,    19.315,     0.000,     0.000,     0.000,     0.000,   1,1
   20,'1 ',1,   1,   1,    26.893,     7.664,     0.000,     0.000,     0.000,     0.000,   1,1
   21,'1 ',1,   1,   1,   144.815,    41.272,     0.000,     0.000,     0.000,     0.000,   1,1
   22,'1 ',1,   1,   1,   167.180,    47.646,     0.000,     0.000,     0.000,     0.000,   1,1
   23,'1 ',1,   1,   1,   141.616,    40.361,     0.000,     0.000,     0.000,     0.000,   1,1
   24,'1 ',1,   1,   1,   151.121,    43.069,     0.000,     0.000,     0.000,     0.000,   1,1
   25,'1 ',1,   1,   1,   123.297,    35.140,     0.000,     0.000,     0.000,     0.000,   1,1
   26,'1 ',1,   1,   1,   100.046,    28.513,     0.000,     0.000,     0.000,     0.000,   1,1
   27,'1 ',1,   1,   1,    95.765,    27.293,     0.000,     0.000,     0.000,     0.000,   1,1
   28,'1 ',1,   1,   1,   216.946,    61.830,     0.000,     0.000,     0.000,     0.000,   1,1
   29,'1 ',1,   1,   1,    12.318,     3.511,     0.000,     0.000,     0.000,     0.000,   1,1
   30,'1 ',1,   1,   1,   180.103,    51.329,     0.000,     0.000,     0.000,     0.000,   1,1
   31,'1 ',1,   2,   1,     5.542,     1.579,     0.000,     0.000,     0.000,     0.000,   1,1
   32,'1 ',1,   1,   1,   350.930,   100.015,     0.000,     0.000,     0.000,     0.000,   1,1
   33,'1 ',1,   1,   1,    26.200,     7.467,     0.000,     0.000,     0.000,     0.000,   1,1
   34,'1 ',1,   1,   1,    85.159,    24.270,     0.000,     0.000,     0.000,     0.000,   1,1
   35,'1 ',1,   1,   1,    83.145,    23.696,     0.000,     0.000,     0.000,     0.000,   1,1
   36,'1 ',1,   1,   1,   182.180,    51.921,     0.000,     0.000,     0.000,     0.000,   1,1
   37,'1 ',1,   1,   1,    87.977,    25.073,     0.000,     0.000,     0.000,     0.000,   1,1
   38,'1 ',1,   1,   1,   108.775,    31.001,     0.000,     0.000,     0.000,     0.000,   1,1
   39,'1 ',1,   1,   1,    81.083,    23.109,     0.000,     0.000,     0.000,     0.000,   1,1
   40,'1 ',1,   2,   1,    13.712,     3.908,     0.000,     0.000,     0.000,     0.000,   1,1
   41,'1 ',1,   1,   1,    86.124,    24.545,     0.000,     0.000,     0.000,     0.000,   1,1
   42,'1 ',1,   1,   1,    25.820,     7.359,     0.000,     0.000,     0.000,     0.000,   1,1
   43,'1 ',1,   1,   1,   190.543,    54.305,     0.000,     0.000,     0.000,     0.000,   1,1
   44,'1 ',1,   1,   1,    68.609,    19.554,     0.000,     0.000,     0.000,     0.000,   1,1
   45,'1 ',1,   1,   1,    60.241,    17.169,     0.000,     0.000,     0.000,     0.000,   1,1
   46,'1 ',1,   2,   1,    44.091,    12.566,     0.000,     0.000,     0.000,     0.000,   1,1
   47,'1 ',1,   2,   1,    42.446,    12.097,     0.000,     0.000,     0.000,     0.000,   1,1
   48,'1 ',1,   1,   1,    50.166,    14.297,     0.000,     0.000,     0.000,     0.000,   1,1
   49,'1 ',1,   1,   1,   117.490,    33.485,     0.000,     0.000,     0.000,     0.000,   1,1
   50,'1 ',1,   1,   1,     1.575,     0.449,     0.000,     0.000,     0.000,     0.000,   1,1
   51,'1 ',1,   1,   1,     3.223,     0.918,     0.000,     0.000,     0.000,     0.000,   1,1
   52,'1 ',1,   3,   1,    20.080,     5.723,     0.000,     0.000,     0.000,     0.000,   1,1
   53,'1 ',1,   1,   1,   110.606,    31.523,     0.000,     0.000,     0.000,     0.000,   1,1
   54,'1 ',1,   1,   1,     0.734,     0.209,     0.000,     0.000,     0.000,     0.000,   1,1
   55,'1 ',1,   1,   1,     8.917,     2.541,     0.000,     0.000,     0.000,     0.000,   1,1
   56,'1 ',1,   1,   1,    68.578,    19.545,     0.000,     0.000,     0.000,     0.000,   1,1
   57,'1 ',1,   1,   1,    11.360,     3.238,     0.000,     0.000,     0.000,     0.000,   1,1
   58,'1 ',1,   1,   1,   119.148,    33.957,     0.000,     0.000,     0.000,     0.000,   1,1
   59,'1 ',1,   1,   1,   165.403,    47.140,     0.000,     0.000,     0.000,     0.000,   1,1
   60,'1 ',1,   3,   1,     5.816,     1.657,     0.000,     0.000,     0.000,     0.000,   1,1
   61,'1 ',1,   1,   1,    64.845,    18.481,     0.000,     0.000,     0.000,     0.000,   1,1
   62,'1 ',1,   3,   1,     6.947,     1.980,     0.000,     0.000,     0.000,     0.000,   1,1
   63,'1 ',1,   1,   1,    16.311,     4.649,     0.000,     0.000,     0.000,     0.000,   1,1
   64,'1 ',1,   1,   1,    81.410,    23.202,     0.000,     0.000,     0.000,     0.000,   1,1
   65,'1 ',1,   3,   1,     2.489,     0.709,     0.000,     0.000,     0.000,     0.000,   1,1
   66,'1 ',1,   1,   1,     0.717,     0.204,     0.000,     0.000,     0.000,     0.000,   1,1
   67,'1 ',1,   1,   1,    49.427,    14.087,     0.000,     0.000,     0.000,     0.000,   1,1
   68,'1 ',1,   1,   1,    14.407,     4.106,     0.000,     0.000,     0.000,     0.000,   1,1
   69,'1 ',1,   3,   1,    10.872,     3.099,     0.000,     0.000,     0.000,     0.000,   1,1
   70,'1 ',1,   1,   1,    22.744,     6.482,     0.000,     0.000,     0.000,     0.000,   1,1
   71,'1 ',1,   1,   1,    46.273,    13.188,     0.000,     0.000,     0.000,     0.000,   1,1
   72,'1 ',1,   1,   1,    35.637,    10.157,     0.000,     0.000,     0.000,     0.000,   1,1
   73,'1 ',1,   1,   1,     8.022,     2.286,     0.000,     0.000,     0.000,     0.000,   1,1
   74,'1 ',1,   1,   1,    43.862,    12.501,     0.000,     0.000,     0.000,     0.000,   1,1
   75,'1 ',1,   1,   1,    16.094,     4.587,     0.000,     0.000,     0.000,     0.000,   1,1
   76,'1 ',1,   3,   1,     9.128,     2.602,     0.000,     0.000,     0.000,     0.000,   1,1
   77,'1 ',1,   1,   1,   136.670,    38.951,     0.000,     0.000,     0.000,     0.000,   1,1
   78,'1 ',1,   1,   1,   143.167,    40.802,     0.000,     0.000,     0.000,     0.000,   1,1
   79,'1 ',1,   1,   1,    11.228,     3.200,     0.000,     0.000,     0.000,     0.000,   1,1
   80,'1 ',1,   1,   1,     1.475,     0.420,     0.000,     0.000,     0.000,     0.000,   1,1
   81,'1 ',1,   1,   1,    87.857,    25.039,     0.000,     0.000,     0.000,     0.000,   1,1
   82,'1 ',1,   1,   1,     6.287,     1.792,     0.000,     0.000,     0.000,     0.000,   1,1
   83,'1 ',1,   1,   1,    35.542,    10.129,     0.000,     0.000,     0.000,     0.000,   1,1
   84,'1 ',1,   1,   1,    10.845,     3.091,     0.000,     0.000,     0.000,     0.000,   1,1
   85,'1 ',1,   1,   1,    44.705,    12.741,     0.000,     0.000,     0.000,     0.000,   1,1
   86,'1 ',1,   1,   1,    57.596,    16.415,     0.000,     0.000,     0.000,     0.000,   1,1
   87,'1 ',1,   1,   1,    15.028,     4.283,     0.000,     0.000,     0.000,     0.000,   1,1
   88,'1 ',1,   3,   1,     3.570,     1.018,     0.000,     0.000,     0.000,     0.000,   1,1
   89,'1 ',1,   1,   1,     1.636,     0.466,     0.000,     0.000,     0.000,     0.000,   1,1
   90,'1 ',1,   1,   1,    92.550,    26.377,     0.000,     0.000,     0.000,     0.000,   1,1
   91,'1 ',1,   1,   1,     7.484,     2.133,     0.000,     0.000,     0.000,     0.000,   1,1
   92,'1 ',1,   1,   1,    20.565,     5.861,     0.000,     0.000,     0.000,     0.000,   1,1
   93,'1 ',1,   3,   1,    22.882,     6.521,     0.000,     0.000,     0.000,     0.000,   1,1
   94,'1 ',1,   1,   1,    10.611,     3.024,     0.000,     0.000,     0.000,     0.000,   1,1
   95,'1 ',1,   1,   1,   101.119,    28.819,     0.000,     0.000,     0.000,     0.000,   1,1
   96,'1 ',1,   1,   1,    63.156,    18.000,     0.000,     0.000,     0.000,     0.000,   1,1
   97,'1 ',1,   1,   1,    12.476,     3.556,     0.000,     0.000,     0.000,     0.000,   1,1
   98,'1 ',1,   1,   1,    54.619,    15.566,     0.000,     0.000,     0.000,     0.000,   1,1
   99,'1 ',1,   1,   1,   183.811,    52.386,     0.000,     0.000,     0.000,     0.000,   1,1
  100,'1 ',1,   1,   1,   111.871,    31.883,     0.000,     0.000,     0.000,     0.000,   1,1
  101,'1 ',1,   1,   1,   275.829,    78.611,     0.000,     0.000,     0.000,     0.000,   1,1
  102,'1 ',1,   1,   1,    75.157,    21.420,     0.000,     0.000,     0.000,     0.000,   1,1
  103,'1 ',1,   1,   1,    87.945,    25.064,     0.000,     0.000,     0.000,     0.000,   1,1
  104,'1 ',1,   1,   1,   178.309,    50.818,     0.000,     0.000,     0.000,     0.000,   1,1
  105,'1 ',1,   1,   1,    61.801,    17.613,     0.000,     0.000,     0.000,     0.000,   1,1
  106,'1 ',1,   1,   1,   120.462,    34.332,     0.000,     0.000,     0.000,     0.000,   1,1
  107,'1 ',1,   1,   1,   195.806,    55.805,     0.000,     0.000,     0.000,     0.000,   1,1
  108,'1 ',1,   1,   1,   215.045,    61.288,     0.000,     0.000,     0.000,     0.000,   1,1
  109,'1 ',1,   1,   1,   179.079,    51.037,     0.000,     0.000,     0.000,     0.000,   1,1
  110,'1 ',1,   1,   1,   117.198,    33.401,     0.000,     0.000,     0.000,     0.000,   1,1
  111,'1 ',1,   1,   1,   134.145,    38.231,     0.000,     0.000,     0.000,     0.000,   1,1
  112,'1 ',1,   1,   1,   299.694,    85.413,     0.000,     0.000,     0.000,     0.000,   1,1
  113,'1 ',1,   1,   1,   111.606,    31.808,     0.000,     0.000,     0.000,     0.000,   1,1
  114,'1 ',1,   1,   1,    65.979,    18.804,     0.000,     0.000,     0.000,     0.000,   1,1
  115,'1 ',1,   1,   1,   259.643,    73.998,     0.000,     0.000,     0.000,     0.000,   1,1
  116,'1 ',1,   1,   1,    45.224,    12.889,     0.000,     0.000,     0.000,     0.000,   1,1
  117,'1 ',1,   1,   1,    38.808,    11.060,     0.000,     0.000,     0.000,     0.000,   1,1
  118,'1 ',1,   1,   1,    34.420,     9.810,     0.000,     0.000,     0.000,     0.000,   1,1
  119,'1 ',1,   1,   1,    28.841,     8.220,     0.000,     0.000,     0.000,     0.000,   1,1
  120,'1 ',1,   2,   1,     2.078,     0.592,     0.000,     0.000,     0.000,     0.000,   1,1
  121,'1 ',1,   2,   1,     1.446,     0.412,     0.000,     0.000,     0.000,     0.000,   1,1
  122,'1 ',1,   2,   1,     0.567,     0.162,     0.000,     0.000,     0.000,     0.000,   1,1
  123,'1 ',1,   2,   1,     5.828,     1.661,     0.000,     0.000,     0.000,     0.000,   1,1
  124,'1 ',1,   1,   1,     0.351,     0.100,     0.000,     0.000,     0.000,     0.000,   1,1
  125,'1 ',1,   2,   1,     5.377,     1.532,     0.000,     0.000,     0.000,     0.000,   1,1
  126,'1 ',1,   2,   1,     4.564,     1.301,     0.000,     0.000,     0.000,     0.000,   1,1
  127,'1 ',1,   2,   1,    26.783,     7.633,     0.000,     0.000,     0.000,     0.000,   1,1
  128,'1 ',1,   3,   1,     1.681,     0.479,     0.000,     0.000,     0.000,     0.000,   1,1
  129,'1 ',1,   2,   1,     1.864,     0.531,     0.000,     0.000,     0.000,     0.000,   1,1
  130,'1 ',1,   1,   1,     7.028,     2.003,     0.000,     0.000,     0.000,     0.000,   1,1
  131,'1 ',1,   1,   1,     7.269,     2.072,     0.000,     0.000,     0.000,     0.000,   1,1
  132,'1 ',1,   1,   1,     8.037,     2.291,     0.000,     0.000,     0.000,     0.000,   1,1
  133,'1 ',1,   2,   1,     9.852,     2.808,     0.000,     0.000,     0.000,     0.000,   1,1
  134,'1 ',1,   1,   1,    24.594,     7.009,     0.000,     0.000,     0.000,     0.000,   1,1
  135,'1 ',1,   3,   1,     3.206,     0.914,     0.000,     0.000,     0.000,     0.000,   1,1
  136,'1 ',1,   1,   1,     8.447,     2.407,     0.000,     0.000,     0.000,     0.000,   1,1
  137,'1 ',1,   3,   1,     4.333,     1.235,     0.000,     0.000,     0.000,     0.000,   1,1
  138,'1 ',1,   2,   1,     2.202,     0.628,     0.000,     0.000,     0.000,     0.000,   1,1
  139,'1 ',1,   2,   1,     3.487,     0.994,     0.000,     0.000,     0.000,     0.000,   1,1
  140,'1 ',1,   3,   1,     1.684,     0.480,     0.000,     0.000,     0.000,     0.000,   1,1
  141,'1 ',1,   2,   1,     1.806,     0.515,     0.000,     0.000,     0.000,     0.000,   1,1
  142,'1 ',1,   2,   1,     1.613,     0.460,     0.000,     0.000,     0.000,     0.000,   1,1
  143,'1 ',1,   3,   1,     9.922,     2.828,     0.000,     0.000,     0.000,     0.000,   1,1
  144,'1 ',1,   1,   1,    21.593,     6.154,     0.000,     0.000,     0.000,     0.000,   1,1
  145,'1 ',1,   2,   1,     5.910,     1.684,     0.000,     0.000,     0.000,     0.000,   1,1
  146,'1 ',1,   2,   1,     2.007,     0.572,     0.000,     0.000,     0.000,     0.000,   1,1
  147,'1 ',1,   1,   1,     1.597,     0.455,     0.000,     0.000,     0.000,     0.000,   1,1
  148,'1 ',1,   2,   1,     2.204,     0.628,     0.000,     0.000,     0.000,     0.000,   1,1
  149,'1 ',1,   1,   1,     0.807,     0.230,     0.000,     0.000,     0.000,     0.000,   1,1
  150,'1 ',1,   3,   1,     1.892,     0.539,     0.000,     0.000,     0.000,     0.000,   1,1
  151,'1 ',1,   2,   1,     7.601,     2.166,     0.000,     0.000,     0.000,     0.000,   1,1
  152,'1 ',1,   1,   1,     7.935,     2.261,     0.000,     0.000,     0.000,     0.000,   1,1
  153,'1 ',1,   1,   1,    13.893,     3.959,     0.000,     0.000,     0.000,     0.000,   1,1
  154,'1 ',1,   3,   1,    44.209,    12.599,     0.000,     0.000,     0.000,     0.000,   1,1
  155,'1 ',1,   3,   1,    10.191,     2.904,     0.000,     0.000,     0.000,     0.000,   1,1
  156,'1 ',1,   2,   1,     8.040,     2.291,     0.000,     0.000,     0.000,     0.000,   1,1
  157,'1 ',1,   2,   1,    43.846,    12.496,     0.000,     0.000,     0.000,     0.000,   1,1
  158,'1 ',1,   2,   1,    21.094,     6.012,     0.000,     0.000,     0.000,     0.000,   1,1
  159,'1 ',1,   2,   1,     1.650,     0.470,     0.000,     0.000,     0.000,     0.000,   1,1
  160,'1 ',1,   1,   1,     0.904,     0.258,     0.000,     0.000,     0.000,     0.000,   1,1
  161,'1 ',1,   2,   1,     0.535,     0.153,     0.000,     0.000,     0.000,     0.000,   1,1
  162,'1 ',1,   3,   1,     2.225,     0.634,     0.000,     0.000,     0.000,     0.000,   1,1
  163,'1 ',1,   3,   1,     5.544,     1.580,     0.000,     0.000,     0.000,     0.000,   1,1
  164,'1 ',1,   2,   1,     7.165,     2.042,     0.000,     0.000,     0.000,     0.000,   1,1
  165,'1 ',1,   1,   1,    36.278,    10.339,     0.000,     0.000,     0.000,     0.000,   1,1
  166,'1 ',1,   2,   1,     0.240,     0.068,     0.000,     0.000,     0.000,     0.000,   1,1
  167,'1 ',1,   2,   1,     2.423,     0.691,     0.000,     0.000,     0.000,     0.000,   1,1
  168,'1 ',1,   2,   1,     1.816,     0.517,     0.000,     0.000,     0.000,     0.000,   1,1
  169,'1 ',1,   3,   1,     1.456,     0.415,     0.000,     0.000,     0.000,     0.000,   1,1
  170,'1 ',1,   2,   1,     3.436,     0.979,     0.000,     0.000,     0.000,     0.000,   1,1
  171,'1 ',1,   3,   1,     2.572,     0.733,     0.000,     0.000,     0.000,     0.000,   1,1
  172,'1 ',1,   3,   1,     0.617,     0.176,     0.000,     0.000,     0.000,     0.000,   1,1
  173,'1 ',1,   3,   1,    38.102,    10.859,     0.000,     0.000,     0.000,     0.000,   1,1
  174,'1 ',1,   2,   1,     4.360,     1.243,     0.000,     0.000,     0.000,     0.000,   1,1
  175,'1 ',1,   3,   1,     2.408,     0.686,     0.000,     0.000,     0.000,     0.000,   1,1
  176,'1 ',1,   2,   1,     2.158,     0.615,     0.000,     0.000,     0.000,     0.000,   1,1
  177,'1 ',1,   2,   1,     1.845,     0.526,     0.000,     0.000,     0.000,     0.000,   1,1
  178,'1 ',1,   2,   1,     4.109,     1.171,     0.000,     0.000,     0.000,     0.000,   1,1
  179,'1 ',1,   2,   1,     8.923,     2.543,     0.000,     0.000,     0.000,     0.000,   1,1
  180,'1 ',1,   2,   1,     0.959,     0.273,     0.000,     0.000,     0.000,     0.000,   1,1
  181,'1 ',1,   3,   1,     0.955,     0.272,     0.000,     0.000,     0.000,     0.000,   1,1
  182,'1 ',1,   2,   1,    13.186,     3.758,     0.000,     0.000,     0.000,     0.000,   1,1
  183,'1 ',1,   1,   1,     8.169,     2.328,     0.000,     0.000,     0.000,     0.000,   1,1
  184,'1 ',1,   3,   1,     5.234,     1.492,     0.000,     0.000,     0.000,     0.000,   1,1
  185,'1 ',1,   2,   1,     1.502,     0.428,     0.000,     0.000,     0.000,     0.000,   1,1
  186,'1 ',1,   2,   1,     3.356,     0.957,     0.000,     0.000,     0.000,     0.000,   1,1
  187,'1 ',1,   3,   1,     2.556,     0.729,     0.000,     0.000,     0.000,     0.000,   1,1
  188,'1 ',1,   3,   1,     4.447,     1.267,     0.000,     0.000,     0.000,     0.000,   1,1
  189,'1 ',1,   3,   1,    25.997,     7.409,     0.000,     0.000,     0.000,     0.000,   1,1
  190,'1 ',1,   3,   1,    19.402,     5.530,     0.000,     0.000,     0.000,     0.000,   1,1
  191,'1 ',1,   3,   1,     1.595,     0.455,     0.000,     0.000,     0.000,     0.000,   1,1
  192,'1 ',1,   3,   1,     0.947,     0.270,     0.000,     0.000,     0.000,     0.000,   1,1
  193,'1 ',1,   3,   1,     4.003,     1.141,     0.000,     0.000,     0.000,     0.000,   1,1
  194,'1 ',1,   3,   1,    12.533,     3.572,     0.000,     0.000,     0.000,     0.000,   1,1
  195,'1 ',1,   3,   1,    20.289,     5.782,     0.000,     0.000,     0.000,     0.000,   1,1
  196,'1 ',1,   3,   1,     6.592,     1.879,     0.000,     0.000,     0.000,     0.000,   1,1
  197,'1 ',1,   3,   1,    96.005,    27.361,     0.000,     0.000,     0.000,     0.000,   1,1
  198,'1 ',1,   3,   1,    58.073,    16.551,     0.000,     0.000,     0.000,     0.000,   1,1
  199,'1 ',1,   3,   1,    13.569,     3.867,     0.000,     0.000,     0.000,     0.000,   1,1
  200,'1 ',1,   3,   1,     3.388,     0.965,     0.000,     0.000,     0.000,     0.000,   1,1
  201,'1 ',1,   3,   1,    13.705,     3.906,     0.000,     0.000,     0.000,     0.000,   1,1
...
0 / END OF LOAD DATA, BEGIN FIXED SHUNT DATA
0 / END OF FIXED SHUNT DATA, BEGIN GENERATOR DATA
    1,'1 ',  2150.607,   373.716,   894.240,  -199.260,1.04000,    0,  2673.000,   0.00000,   1.00000,   0.00000,   0.00000,1.00000,1,  100.0,  2430.000,   729.000,   1,1.0000,   0,1.0000,   0,1.0000,   0,1.0000,0, 1.0000
 1502,'1 ',   161.770,    46.518,   170.576,   -19.494,1.04000,    0,   335.060,   0.00000,   1.00000,   0.00000,   0.00000,1.00000,1,  100.0,   304.600,    91.380,   1,1.0000,   0,1.0000,   0,1.0000,   0,1.0000,0, 1.0000
 1503,'1 ',   125.337,    36.042,   132.160,   -15.104,1.04000,    0,   259.600,   0.00000,   1.00000,   0.00000,   0.00000,1.00000,1,  100.0,   236.000,    70.800,   1,1.0000,   0,1.0000,   0,1.0000,   0,1.0000,0, 1.0000
 1504,'1 ',    93.684,    26.940,    98.784,   -11.290,1.04000,    0,   194.040,   0.00000,   1.00000,   0.00000,   0.00000,1.00000,1,  100.0,   176.400,    52.920,   1,1.0000,   0,1.0000,   0,1.0000,   0,1.0000,0, 1.0000
 1505,'1 ',   202.185,    58.140,   213.192,   -24.365,1.04000,    0,   418.770,   0.00000,   1.00000,   0.00000,   0.00000,1.00000,1,  100.0,   380.700,   114.210,   1,1.0000,   0,1.0000,   0,1.0000,   0,1.0000,0, 1.0000
 1506,'1 ',   447.442,   124.102,   392.605,  -102.785,1.04000,    0,   926.750,   0.00000,   1.00000,   0.00000,   0.00000,1.00000,1,  100.0,   842.500,   252.750,   1,1.0000,   0,1.0000,   0,1.0000,   0,1.0000,0, 1.0000
 1507,'1 ',    94.162,    27.077,    99.288,   -11.347,1.04000,    0,   195.030,   0.00000,   1.00000,   0.00000,   0.00000,1.00000,1,  100.0,   177.300,    53.190,   1,1.0000,   0,1.0000,   0,1.0000,   0,1.0000,0, 1.0000
 1508,'1 ',   202.770,    58.308,   213.808,   -24.435,1.04000,    0,   419.980,   0.00000,   1.00000,   0.00000,   0.00000,1.00000,1,  100.0,   381.800,   114.540,   1,1.0000,   0,1.0000,   0,1.0000,   0,1.0000,0, 1.0000
 1509,'1 ',     0.585,     0.000,     0.000,     0.000,1.01000,    0,     1.650,   0.00000,   1.00000,   0.00000,   0.00000,1.00000,1,  100.0,     1.500,     0.450,   1,1.0000,   0,1.0000,   0,1.0000,   0,1.0000,0, 1.0000
 1510,'1 ',    49.232,     8.089,    51.912,    -5.933,1.04000,    0,   101.970,   0.00000,   1.00000,   0.00000,   0.00000,1.00000,1,  100.0,    92.700,    27.810,   1,1.0000,   0,1.0000,   0,1.0000,   0,1.0000,0, 1.0000
 1511,'1 ',   360.131,    59.174,   379.736,   -43.398,1.04000,    0,   745.910,   0.00000,   1.00000,   0.00000,   0.00000,1.00000,1,  100.0,   678.100,   203.430,   1,1.0000,   0,1.0000,   0,1.0000,   0,1.0000,0, 1.0000
 1512,'1 ',   138.083,    22.689,   145.600,   -16.640,1.04000,    0,   286.000,   0.00000,   1.00000,   0.00000,   0.00000,1.00000,1,  100.0,   260.000,    78.000,   1,1.0000,   0,1.0000,   0,1.0000,   0,1.0000,0, 1.0000
 1513,'1 ',   264.429,    43.449,   278.824,   -31.866,1.04000,    0,   547.690,   0.00000,   1.00000,   0.00000,   0.00000,1.00000,1,  100.0,   497.900,   149.370,   1,1.0000,   0,1.0000,   0,1.0000,   0,1.0000,0, 1.0000
 1514,'1 ',     7.871,     3.054,    12.320,    -1.408,1.04000,    0,    24.200,   0.00000,   1.00000,   0.00000,   0.00000,1.00000,1,  100.0,    22.000,     6.600,   1,1.0000,   0,1.0000,   0,1.0000,   0,1.0000,0, 1.0000
 1515,'1 ',    17.923,     6.955,    28.056,    -3.206,1.04000,    0,    55.110,   0.00000,   1.00000,   0.00000,   0.00000,1.00000,1,  100.0,    50.100,    15.030,   1,1.0000,   0,1.0000,   0,1.0000,   0,1.0000,0, 1.0000
 1516,'1 ',    72.696,    27.157,    94.691,   -24.790,1.04000,    0,   223.520,   0.00000,   1.00000,   0.00000,   0.00000,1.00000,1,  100.0,   203.200,    60.960,   1,1.0000,   0,1.0000,   0,1.0000,   0,1.0000,0, 1.0000
 1517,'1 ',     8.776,     0.000,     0.000,     0.000,1.04000,    0,    26.400,   0.00000,   1.00000,   0.00000,   0.00000,1.00000,1,  100.0,    24.000,     7.200,   1,1.0000,   0,1.0000,   0,1.0000,   0,1.0000,0, 1.0000
 1518,'1 ',   157.961,    19.422,   241.920,   -27.648,1.04000,    0,   475.200,   0.00000,   1.00000,   0.00000,   0.00000,1.00000,1,  100.0,   432.000,   129.600,   1,1.0000,   0,1.0000,   0,1.0000,   0,1.0000,0, 1.0000
 1519,'1 ',   216.941,    26.674,   332.248,   -37.971,1.04000,    0,   652.630,   0.00000,   1.00000,   0.00000,   0.00000,1.00000,1,  100.0,   593.300,   177.990,   1,1.0000,   0,1.0000,   0,1.0000,   0,1.0000,0, 1.0000
 1520,'1 ',   266.999,    32.828,   408.912,   -46.733,1.04000,    0,   803.220,   0.00000,   1.00000,   0.00000,   0.00000,1.00000,1,  100.0,   730.200,   219.060,   1,1.0000,   0,1.0000,   0,1.0000,   0,1.0000,0, 1.0000
 1521,'1 ',    13.369,    -4.939,     7.306,    -4.939,1.01000,    0,    37.730,   0.00000,   1.00000,   0.00000,   0.00000,1.00000,1,  100.0,    34.300,    10.290,   1,1.0000,   0,1.0000,   0,1.0000,   0,1.0000,1, 1.0000
 1522,'1 ',    47.512,   -17.554,    25.965,   -17.554,1.01000,    0,   134.090,   0.00000,   1.00000,   0.00000,   0.00000,1.00000,1,  100.0,   121.900,    36.570,   1,1.0000,   0,1.0000,   0,1.0000,   0,1.0000,1, 1.0000
 1523,'1 ',    22.918,    -8.467,    12.524,    -8.467,1.01000,    0,    64.680,   0.00000,   1.00000,   0.00000,   0.00000,1.00000,1,  100.0,    58.800,    17.640,   1,1.0000,   0,1.0000,   0,1.0000,   0,1.0000,1, 1.0000
 1524,'1 ',    55.542,   -20.520,    30.353,   -20.520,1.01000,    0,   156.750,   0.00000,   1.00000,   0.00000,   0.00000,1.00000,1,  100.0,   142.500,    42.750,   1,1.0000,   0,1.0000,   0,1.0000,   0,1.0000,1, 1.0000
 1525,'1 ',   485.734,   129.829,   512.176,   -58.534,1.04000,    0,  1006.060,   0.00000,   1.00000,   0.00000,   0.00000,1.00000,1,  100.0,   914.600,   274.380,   1,1.0000,   0,1.0000,   0,1.0000,   0,1.0000,0, 1.0000
 1526,'1 ',   812.566,   209.514,   712.980,  -186.660,1.04000,    0,  1683.000,   0.00000,   1.00000,   0.00000,   0.00000,1.00000,1,  100.0,  1530.000,   459.000,   1,1.0000,   0,1.0000,   0,1.0000,   0,1.0000,0, 1.0000
 1527,'1 ',   284.398,    76.015,   299.880,   -34.272,1.04000,    0,   589.050,   0.00000,   1.00000,   0.00000,   0.00000,1.00000,1,  100.0,   535.500,   160.650,   1,1.0000,   0,1.0000,   0,1.0000,   0,1.0000,0, 1.0000
 1528,'1 ',    13.649,     3.648,    14.392,    -1.645,1.04000,    0,    28.270,   0.00000,   1.00000,   0.00000,   0.00000,1.00000,1,  100.0,    25.700,     7.710,   1,1.0000,   0,1.0000,   0,1.0000,   0,1.0000,0, 1.0000
 1529,'1 ',     2.124,     0.557,     2.036,    -0.444,1.04000,    0,     4.400,   0.00000,   1.00000,   0.00000,   0.00000,1.00000,1,  100.0,     4.000,     1.200,   1,1.0000,   0,1.0000,   0,1.0000,   0,1.0000,0, 1.0000
 1530,'1 ',   108.355,   -40.032,    59.214,   -40.032,1.01000,    0,   305.800,   0.00000,   1.00000,   0.00000,   0.00000,1.00000,1,  100.0,   278.000,    83.400,   1,1.0000,   0,1.0000,   0,1.0000,   0,1.0000,1, 1.0000
 1531,'1 ',    29.232,   -10.800,    15.975,   -10.800,1.01000,    0,    82.500,   0.00000,   1.00000,   0.00000,   0.00000,1.00000,1,  100.0,    75.000,    22.500,   1,1.0000,   0,1.0000,   0,1.0000,   0,1.0000,1, 1.0000
 1532,'1 ',     2.499,     1.075,     1.075,    -0.137,1.04000,    0,     3.080,   0.00000,   1.00000,   0.00000,   0.00000,1.00000,1,  100.0,     2.800,     0.840,   1,1.0000,   0,1.0000,   0,1.0000,   0,1.0000,0, 1.0000
 1533,'1 ',     0.775,     0.365,     0.576,    -0.074,1.04000,    0,     1.650,   0.00000,   1.00000,   0.00000,   0.00000,1.00000,1,  100.0,     1.500,     0.450,   1,1.0000,   0,1.0000,   0,1.0000,   0,1.0000,0, 1.0000
 1534,'1 ',     1.241,     0.584,     0.922,    -0.118,1.04000,    0,     2.640,   0.00000,   1.00000,   0.00000,   0.00000,1.00000,1,  100.0,     2.400,     0.720,   1,1.0000,   0,1.0000,   0,1.0000,   0,1.0000,0, 1.0000
 1535,'1 ',     1.241,     0.584,     0.922,    -0.118,1.04000,    0,     2.640,   0.00000,   1.00000,   0.00000,   0.00000,1.00000,1,  100.0,     2.400,     0.720,   1,1.0000,   0,1.0000,   0,1.0000,   0,1.0000,0, 1.0000
 1536,'1 ',     3.102,     1.494,     2.304,    -0.294,1.04000,    0,     6.600,   0.00000,   1.00000,   0.00000,   0.00000,1.00000,1,  100.0,     6.000,     1.800,   1,1.0000,   0,1.0000,   0,1.0000,   0,1.0000,0, 1.0000
 1537,'1 ',     1.448,     1.075,     1.075,    -0.137,1.04000,    0,     3.080,   0.00000,   1.00000,   0.00000,   0.00000,1.00000,1,  100.0,     2.800,     0.840,   1,1.0000,   0,1.0000,   0,1.0000,   0,1.0000,0, 1.0000
 1538,'1 ',     1.861,     1.382,     1.382,    -0.176,1.04000,    0,     3.960,   0.00000,   1.00000,   0.00000,   0.00000,1.00000,1,  100.0,     3.600,     1.080,   1,1.0000,   0,1.0000,   0,1.0000,   0,1.0000,0, 1.0000
 1539,'1 ',     1.241,     0.922,     0.922,    -0.118,1.04000,    0,     2.640,   0.00000,   1.00000,   0.00000,   0.00000,1.00000,1,  100.0,     2.400,     0.720,   1,1.0000,   0,1.0000,   0,1.0000,   0,1.0000,0, 1.0000
 1540,'1 ',     1.241,     0.922,     0.922,    -0.118,1.04000,    0,     2.640,   0.00000,   1.00000,   0.00000,   0.00000,1.00000,1,  100.0,     2.400,     0.720,   1,1.0000,   0,1.0000,   0,1.0000,   0,1.0000,0, 1.0000
 1541,'1 ',    22.289,     1.959,    25.344,    -3.234,1.04000,    0,    72.600,   0.00000,   1.00000,   0.00000,   0.00000,1.00000,1,  100.0,    66.000,    19.800,   1,1.0000,   0,1.0000,   0,1.0000,   0,1.0000,0, 1.0000
 1542,'1 ',    11.518,     2.607,    12.096,    -1.543,1.04000,    0,    34.650,   0.00000,   1.00000,   0.00000,   0.00000,1.00000,1,  100.0,    31.500,     9.450,   1,1.0000,   0,1.0000,   0,1.0000,   0,1.0000,0, 1.0000
 1543,'1 ',     9.306,     6.900,     6.912,    -0.882,1.04000,    0,    19.800,   0.00000,   1.00000,   0.00000,   0.00000,1.00000,1,  100.0,    18.000,     5.400,   1,1.0000,   0,1.0000,   0,1.0000,   0,1.0000,0, 1.0000
 1544,'1 ',    55.834,    41.398,    41.472,    -5.292,1.04000,    0,   118.800,   0.00000,   1.00000,   0.00000,   0.00000,1.00000,1,  100.0,   108.000,    32.400,   1,1.0000,   0,1.0000,   0,1.0000,   0,1.0000,0, 1.0000
 1545,'1 ',    18.540,    15.811,    21.082,    -2.690,1.04000,    0,    60.390,   0.00000,   1.00000,   0.00000,   0.00000,1.00000,1,  100.0,    54.900,    16.470,   1,1.0000,   0,1.0000,   0,1.0000,   0,1.0000,0, 1.0000
 1546,'1 ',     5.066,     4.320,     5.760,    -0.735,1.04000,    0,    16.500,   0.00000,   1.00000,   0.00000,   0.00000,1.00000,1,  100.0,    15.000,     4.500,   1,1.0000,   0,1.0000,   0,1.0000,   0,1.0000,0, 1.0000
 1547,'1 ',    31.019,    23.040,    23.040,    -2.940,1.04000,    0,    66.000,   0.00000,   1.00000,   0.00000,   0.00000,1.00000,1,  100.0,    60.000,    18.000,   1,1.0000,   0,1.0000,   0,1.0000,   0,1.0000,0, 1.0000
 1548,'1 ',    22.747,    16.896,    16.896,    -2.156,1.04000,    0,    48.400,   0.00000,   1.00000,   0.00000,   0.00000,1.00000,1,  100.0,    44.000,    13.200,   1,1.0000,   0,1.0000,   0,1.0000,   0,1.0000,0, 1.0000
 1549,'1 ',   330.350,    44.119,   297.774,   -77.958,1.04000,    0,   702.900,   0.00000,   1.00000,   0.00000,   0.00000,1.00000,1,  100.0,   639.000,   191.700,   1,1.0000,   0,1.0000,   0,1.0000,   0,1.0000,0, 1.0000
 1550,'1 ',   307.603,    42.514,   333.200,   -38.080,1.04000,    0,   654.500,   0.00000,   1.00000,   0.00000,   0.00000,1.00000,1,  100.0,   595.000,   178.500,   1,1.0000,   0,1.0000,   0,1.0000,   0,1.0000,0, 1.0000
 1551,'1 ',   125.109,     7.430,   135.520,   -15.488,1.04000,    0,   266.200,   0.00000,   1.00000,   0.00000,   0.00000,1.00000,1,  100.0,   242.000,    72.600,   1,1.0000,   0,1.0000,   0,1.0000,   0,1.0000,0, 1.0000
 1552,'1 ',    32.156,    -6.020,    17.572,   -11.880,1.01000,    0,    90.750,   0.00000,   1.00000,   0.00000,   0.00000,1.00000,1,  100.0,    82.500,    24.750,   1,1.0000,   0,1.0000,   0,1.0000,   0,1.0000,1, 1.0000
 1553,'1 ',    62.557,   -11.711,    34.187,   -23.112,1.01000,    0,   176.550,   0.00000,   1.00000,   0.00000,   0.00000,1.00000,1,  100.0,   160.500,    48.150,   1,1.0000,   0,1.0000,   0,1.0000,   0,1.0000,1, 1.0000
 1554,'1 ',   449.321,     3.640,   645.568,   -73.779,1.01000,    0,  1268.080,   0.00000,   1.00000,   0.00000,   0.00000,1.00000,1,  100.0,  1152.800,   345.840,   1,1.0000,   0,1.0000,   0,1.0000,   0,1.0000,0, 1.0000
 1555,'1 ',   223.335,     1.809,   320.880,   -36.672,1.01000,    0,   630.300,   0.00000,   1.00000,   0.00000,   0.00000,1.00000,1,  100.0,   573.000,   171.900,   1,1.0000,   0,1.0000,   0,1.0000,   0,1.0000,0, 1.0000
 1556,'1 ',    31.961,   -11.808,    17.466,   -11.808,1.01000,    0,    90.200,   0.00000,   1.00000,   0.00000,   0.00000,1.00000,1,  100.0,    82.000,    24.600,   1,1.0000,   0,1.0000,   0,1.0000,   0,1.0000,1, 1.0000
 1557,'1 ',    30.402,   -11.232,    16.614,   -11.232,1.01000,    0,    85.800,   0.00000,   1.00000,   0.00000,   0.00000,1.00000,1,  100.0,    78.000,    23.400,   1,1.0000,   0,1.0000,   0,1.0000,   0,1.0000,1, 1.0000
 1558,'1 ',    58.465,   -21.600,    31.950,   -21.600,1.01000,    0,   165.000,   0.00000,   1.00000,   0.00000,   0.00000,1.00000,1,  100.0,   150.000,    45.000,   1,1.0000,   0,1.0000,   0,1.0000,   0,1.0000,1, 1.0000
 1559,'1 ',    57.490,   -21.240,    31.418,   -21.240,1.01000,    0,   162.250,   0.00000,   1.00000,   0.00000,   0.00000,1.00000,1,  100.0,   147.500,    44.250,   1,1.0000,   0,1.0000,   0,1.0000,   0,1.0000,1, 1.0000
 1560,'1 ',    73.715,     4.301,    42.941,   -29.030,1.04000,    0,   221.760,   0.00000,   1.00000,   0.00000,   0.00000,1.00000,1,  100.0,   201.600,    60.480,   1,1.0000,   0,1.0000,   0,1.0000,   0,1.0000,1, 1.0000
 1561,'1 ',    73.496,     4.288,    42.813,   -28.944,1.04000,    0,   221.100,   0.00000,   1.00000,   0.00000,   0.00000,1.00000,1,  100.0,   201.000,    60.300,   1,1.0000,   0,1.0000,   0,1.0000,   0,1.0000,1, 1.0000
 1562,'1 ',   103.552,     6.041,    60.322,   -40.781,1.04000,    0,   311.520,   0.00000,   1.00000,   0.00000,   0.00000,1.00000,1,  100.0,   283.200,    84.960,   1,1.0000,   0,1.0000,   0,1.0000,   0,1.0000,1, 1.0000
 1563,'1 ',   107.090,    25.138,    25.560,   -17.280,1.04000,    0,   132.000,   0.00000,   1.00000,   0.00000,   0.00000,1.00000,1,  100.0,   120.000,    36.000,   1,1.0000,   0,1.0000,   0,1.0000,   0,1.0000,1, 1.0000
 1564,'1 ',   133.863,    31.423,    31.950,   -21.600,1.04000,    0,   165.000,   0.00000,   1.00000,   0.00000,   0.00000,1.00000,1,  100.0,   150.000,    45.000,   1,1.0000,   0,1.0000,   0,1.0000,   0,1.0000,1, 1.0000
 1565,'1 ',    68.742,    15.159,    40.044,   -27.072,1.04000,    0,   206.800,   0.00000,   1.00000,   0.00000,   0.00000,1.00000,1,  100.0,   188.000,    56.400,   1,1.0000,   0,1.0000,   0,1.0000,   0,1.0000,1, 1.0000
 1566,'1 ',     9.105,     0.000,     0.000,     0.000,1.04000,    0,    27.390,   0.00000,   1.00000,   0.00000,   0.00000,1.00000,1,  100.0,    24.900,     7.470,   1,1.0000,   0,1.0000,   0,1.0000,   0,1.0000,0, 1.0000
 1567,'1 ',    54.033,    -2.451,    34.080,   -23.040,1.04000,    0,   176.000,   0.00000,   1.00000,   0.00000,   0.00000,1.00000,1,  100.0,   160.000,    48.000,   1,1.0000,   0,1.0000,   0,1.0000,   0,1.0000,1, 1.0000
 1568,'1 ',    28.367,    -1.287,    17.892,   -12.096,1.04000,    0,    92.400,   0.00000,   1.00000,   0.00000,   0.00000,1.00000,1,  100.0,    84.000,    25.200,   1,1.0000,   0,1.0000,   0,1.0000,   0,1.0000,1, 1.0000
 1569,'1 ',     0.775,     0.471,     0.576,    -0.074,1.04000,    0,     1.650,   0.00000,   1.00000,   0.00000,   0.00000,1.00000,1,  100.0,     1.500,     0.450,   1,1.0000,   0,1.0000,   0,1.0000,   0,1.0000,0, 1.0000
 1570,'1 ',   101.491,    32.315,   107.016,   -12.230,1.04000,    0,   210.210,   0.00000,   1.00000,   0.00000,   0.00000,1.00000,1,  100.0,   191.100,    57.330,   1,1.0000,   0,1.0000,   0,1.0000,   0,1.0000,0, 1.0000
 1571,'1 ',   457.267,   145.597,   482.160,   -55.104,1.04000,    0,   947.100,   0.00000,   1.00000,   0.00000,   0.00000,1.00000,1,  100.0,   861.000,   258.300,   1,1.0000,   0,1.0000,   0,1.0000,   0,1.0000,0, 1.0000
 1572,'1 ',   238.990,    76.096,   252.000,   -28.800,1.04000,    0,   495.000,   0.00000,   1.00000,   0.00000,   0.00000,1.00000,1,  100.0,   450.000,   135.000,   1,1.0000,   0,1.0000,   0,1.0000,   0,1.0000,0, 1.0000
 1573,'1 ',    29.741,     0.000,     0.000,     0.000,1.04000,    0,    61.600,   0.00000,   1.00000,   0.00000,   0.00000,1.00000,1,  100.0,    56.000,    16.800,   1,1.0000,   0,1.0000,   0,1.0000,   0,1.0000,0, 1.0000
 1574,'1 ',    97.848,    15.404,   124.702,   -32.647,1.04000,    0,   294.360,   0.00000,   1.00000,   0.00000,   0.00000,1.00000,1,  100.0,   267.600,    80.280,   1,1.0000,   0,1.0000,   0,1.0000,   0,1.0000,0, 1.0000
 1575,'1 ',    40.784,     0.000,     0.000,     0.000,1.04000,    0,   125.400,   0.00000,   1.00000,   0.00000,   0.00000,1.00000,1,  100.0,   114.000,    34.200,   1,1.0000,   0,1.0000,   0,1.0000,   0,1.0000,0, 1.0000
 1576,'1 ',   162.241,    55.879,   211.331,   -55.327,1.04000,    0,   498.850,   0.00000,   1.00000,   0.00000,   0.00000,1.00000,1,  100.0,   453.500,   136.050,   1,1.0000,   0,1.0000,   0,1.0000,   0,1.0000,0, 1.0000
 1577,'1 ',    50.656,    -0.368,    31.950,   -21.600,1.04000,    0,   165.000,   0.00000,   1.00000,   0.00000,   0.00000,1.00000,1,  100.0,   150.000,    45.000,   1,1.0000,   0,1.0000,   0,1.0000,   0,1.0000,1, 1.0000
 1578,'1 ',    34.176,    -0.249,    21.556,   -14.573,1.04000,    0,   111.320,   0.00000,   1.00000,   0.00000,   0.00000,1.00000,1,  100.0,   101.200,    30.360,   1,1.0000,   0,1.0000,   0,1.0000,   0,1.0000,1, 1.0000
 1579,'1 ',    12.664,    -0.092,     7.987,    -5.400,1.04000,    0,    41.250,   0.00000,   1.00000,   0.00000,   0.00000,1.00000,1,  100.0,    37.500,    11.250,   1,1.0000,   0,1.0000,   0,1.0000,   0,1.0000,1, 1.0000
 1580,'1 ',    30.900,    -0.225,    19.489,   -13.176,1.04000,    0,   100.650,   0.00000,   1.00000,   0.00000,   0.00000,1.00000,1,  100.0,    91.500,    27.450,   1,1.0000,   0,1.0000,   0,1.0000,   0,1.0000,1, 1.0000
 1581,'1 ',    45.590,    -0.332,    28.755,   -19.440,1.04000,    0,   148.500,   0.00000,   1.00000,   0.00000,   0.00000,1.00000,1,  100.0,   135.000,    40.500,   1,1.0000,   0,1.0000,   0,1.0000,   0,1.0000,1, 1.0000
 1582,'1 ',    27.185,    -0.198,    17.146,   -11.592,1.04000,    0,    88.550,   0.00000,   1.00000,   0.00000,   0.00000,1.00000,1,  100.0,    80.500,    24.150,   1,1.0000,   0,1.0000,   0,1.0000,   0,1.0000,1, 1.0000
 1583,'1 ',    81.387,    -0.592,    51.333,   -34.704,1.04000,    0,   265.100,   0.00000,   1.00000,   0.00000,   0.00000,1.00000,1,  100.0,   241.000,    72.300,   1,1.0000,   0,1.0000,   0,1.0000,   0,1.0000,1, 1.0000
 1584,'1 ',    37.303,    12.612,    16.051,    -2.048,1.04000,    0,    45.980,   0.00000,   1.00000,   0.00000,   0.00000,1.00000,1,  100.0,    41.800,    12.540,   1,1.0000,   0,1.0000,   0,1.0000,   0,1.0000,0, 1.0000
 1585,'1 ',    61.429,     9.715,    94.080,   -10.752,1.04000,    0,   184.800,   0.00000,   1.00000,   0.00000,   0.00000,1.00000,1,  100.0,   168.000,    50.400,   1,1.0000,   0,1.0000,   0,1.0000,   0,1.0000,0, 1.0000
 1586,'1 ',     2.779,     0.000,     0.000,     0.000,1.04000,    0,     8.360,   0.00000,   1.00000,   0.00000,   0.00000,1.00000,1,  100.0,     7.600,     2.280,   1,1.0000,   0,1.0000,   0,1.0000,   0,1.0000,0, 1.0000
 1587,'1 ',    14.187,     0.000,     0.000,     0.000,1.04000,    0,    42.680,   0.00000,   1.00000,   0.00000,   0.00000,1.00000,1,  100.0,    38.800,    11.640,   1,1.0000,   0,1.0000,   0,1.0000,   0,1.0000,0, 1.0000
 1588,'1 ',    40.727,     1.351,    25.688,   -17.366,1.04000,    0,   132.660,   0.00000,   1.00000,   0.00000,   0.00000,1.00000,1,  100.0,   120.600,    36.180,   1,1.0000,   0,1.0000,   0,1.0000,   0,1.0000,1, 1.0000
 1589,'1 ',    38.498,     1.277,    24.282,   -16.416,1.04000,    0,   125.400,   0.00000,   1.00000,   0.00000,   0.00000,1.00000,1,  100.0,   114.000,    34.200,   1,1.0000,   0,1.0000,   0,1.0000,   0,1.0000,1, 1.0000
 1590,'1 ',    57.477,     1.906,    36.253,   -24.509,1.04000,    0,   187.220,   0.00000,   1.00000,   0.00000,   0.00000,1.00000,1,  100.0,   170.200,    51.060,   1,1.0000,   0,1.0000,   0,1.0000,   0,1.0000,1, 1.0000
 1591,'1 ',   248.382,     8.238,   156.661,  -105.912,1.04000,    0,   809.050,   0.00000,   1.00000,   0.00000,   0.00000,1.00000,1,  100.0,   735.500,   220.650,   1,1.0000,   0,1.0000,   0,1.0000,   0,1.0000,1, 1.0000
 1592,'1 ',    78.516,     2.604,    49.523,   -33.480,1.04000,    0,   255.750,   0.00000,   1.00000,   0.00000,   0.00000,1.00000,1,  100.0,   232.500,    69.750,   1,1.0000,   0,1.0000,   0,1.0000,   0,1.0000,1, 1.0000
 1593,'1 ',  1438.506,    50.198,   996.765,  -222.105,1.04000,    0,  2979.460,   0.00000,   1.00000,   0.00000,   0.00000,1.00000,1,  100.0,  2708.600,   812.580,   1,1.0000,   0,1.0000,   0,1.0000,   0,1.0000,0, 1.0000
 1594,'1 ',    33.512,     8.692,    29.405,    -7.698,1.04000,    0,    69.410,   0.00000,   1.00000,   0.00000,   0.00000,1.00000,1,  100.0,    63.100,    18.930,   1,1.0000,   0,1.0000,   0,1.0000,   0,1.0000,0, 1.0000
 1595,'1 ',    24.951,     3.108,    26.880,    -3.430,1.01000,    0,    77.000,   0.00000,   1.00000,   0.00000,   0.00000,1.00000,1,  100.0,    70.000,    21.000,   1,1.0000,   0,1.0000,   0,1.0000,   0,1.0000,0, 1.0000
 1596,'1 ',    50.521,    11.203,    31.865,   -21.542,1.04000,    0,   164.560,   0.00000,   1.00000,   0.00000,   0.00000,1.00000,1,  100.0,   149.600,    44.880,   1,1.0000,   0,1.0000,   0,1.0000,   0,1.0000,1, 1.0000
 1597,'1 ',   223.729,    49.612,   141.112,   -95.400,1.04000,    0,   728.750,   0.00000,   1.00000,   0.00000,   0.00000,1.00000,1,  100.0,   662.500,   198.750,   1,1.0000,   0,1.0000,   0,1.0000,   0,1.0000,1, 1.0000
 1598,'1 ',    54.848,    24.373,    31.950,   -21.600,1.04000,    0,   165.000,   0.00000,   1.00000,   0.00000,   0.00000,1.00000,1,  100.0,   150.000,    45.000,   1,1.0000,   0,1.0000,   0,1.0000,   0,1.0000,1, 1.0000
 1599,'1 ',    33.640,    14.949,    19.596,   -13.248,1.04000,    0,   101.200,   0.00000,   1.00000,   0.00000,   0.00000,1.00000,1,  100.0,    92.000,    27.600,   1,1.0000,   0,1.0000,   0,1.0000,   0,1.0000,1, 1.0000
 1600,'1 ',   319.855,   130.762,   346.472,   -39.597,1.04000,    0,   680.570,   0.00000,   1.00000,   0.00000,   0.00000,1.00000,1,  100.0,   618.700,   185.610,   1,1.0000,   0,1.0000,   0,1.0000,   0,1.0000,0, 1.0000
 1601,'1 ',     2.183,    -0.174,     3.136,    -0.358,1.01000,    0,     6.160,   0.00000,   1.00000,   0.00000,   0.00000,1.00000,1,  100.0,     5.600,     1.680,   1,1.0000,   0,1.0000,   0,1.0000,   0,1.0000,0, 1.0000
 1602,'1 ',    44.070,    -0.272,    27.797,   -18.792,1.04000,    0,   143.550,   0.00000,   1.00000,   0.00000,   0.00000,1.00000,1,  100.0,   130.500,    39.150,   1,1.0000,   0,1.0000,   0,1.0000,   0,1.0000,1, 1.0000
 1603,'1 ',    40.525,    -0.250,    25.560,   -17.280,1.04000,    0,   132.000,   0.00000,   1.00000,   0.00000,   0.00000,1.00000,1,  100.0,   120.000,    36.000,   1,1.0000,   0,1.0000,   0,1.0000,   0,1.0000,1, 1.0000
 1604,'1 ',    21.275,    -0.131,    13.419,    -9.072,1.04000,    0,    69.300,   0.00000,   1.00000,   0.00000,   0.00000,1.00000,1,  100.0,    63.000,    18.900,   1,1.0000,   0,1.0000,   0,1.0000,   0,1.0000,1, 1.0000
 1605,'1 ',    84.089,    -0.518,    53.037,   -35.856,1.04000,    0,   273.900,   0.00000,   1.00000,   0.00000,   0.00000,1.00000,1,  100.0,   249.000,    74.700,   1,1.0000,   0,1.0000,   0,1.0000,   0,1.0000,1, 1.0000
 1606,'1 ',    46.772,    -3.349,    25.560,   -17.280,1.01000,    0,   132.000,   0.00000,   1.00000,   0.00000,   0.00000,1.00000,1,  100.0,   120.000,    36.000,   1,1.0000,   0,1.0000,   0,1.0000,   0,1.0000,1, 1.0000
 1607,'1 ',    53.465,   -17.827,    31.950,   -21.600,1.01000,    0,   165.000,   0.00000,   1.00000,   0.00000,   0.00000,1.00000,1,  100.0,   150.000,    45.000,   1,1.0000,   0,1.0000,   0,1.0000,   0,1.0000,1, 1.0000
 1608,'1 ',    57.241,     1.043,    36.103,   -24.408,1.04000,    0,   186.450,   0.00000,   1.00000,   0.00000,   0.00000,1.00000,1,  100.0,   169.500,    50.850,   1,1.0000,   0,1.0000,   0,1.0000,   0,1.0000,1, 1.0000
 1609,'1 ',   133.863,    31.950,    31.950,   -21.600,1.04000,    0,   165.000,   0.00000,   1.00000,   0.00000,   0.00000,1.00000,1,  100.0,   150.000,    45.000,   1,1.0000,   0,1.0000,   0,1.0000,   0,1.0000,1, 1.0000
 1610,'1 ',   102.868,   -25.193,    61.472,   -41.558,1.01000,    0,   317.460,   0.00000,   1.00000,   0.00000,   0.00000,1.00000,1,  100.0,   288.600,    86.580,   1,1.0000,   0,1.0000,   0,1.0000,   0,1.0000,1, 1.0000
 1611,'1 ',     3.510,     0.979,     3.686,    -0.470,1.04000,    0,    10.560,   0.00000,   1.00000,   0.00000,   0.00000,1.00000,1,  100.0,     9.600,     2.880,   1,1.0000,   0,1.0000,   0,1.0000,   0,1.0000,0, 1.0000
 1612,'1 ',    89.109,    16.226,   140.000,   -16.000,1.01000,    0,   275.000,   0.00000,   1.00000,   0.00000,   0.00000,1.00000,1,  100.0,   250.000,    75.000,   1,1.0000,   0,1.0000,   0,1.0000,   0,1.0000,0, 1.0000
 1613,'1 ',    67.541,     5.926,    42.600,   -28.800,1.04000,    0,   220.000,   0.00000,   1.00000,   0.00000,   0.00000,1.00000,1,  100.0,   200.000,    60.000,   1,1.0000,   0,1.0000,   0,1.0000,   0,1.0000,1, 1.0000
 1614,'1 ',    55.924,     4.907,    35.273,   -23.846,1.04000,    0,   182.160,   0.00000,   1.00000,   0.00000,   0.00000,1.00000,1,  100.0,   165.600,    49.680,   1,1.0000,   0,1.0000,   0,1.0000,   0,1.0000,1, 1.0000
 1615,'1 ',    67.541,     5.926,    42.600,   -28.800,1.04000,    0,   220.000,   0.00000,   1.00000,   0.00000,   0.00000,1.00000,1,  100.0,   200.000,    60.000,   1,1.0000,   0,1.0000,   0,1.0000,   0,1.0000,1, 1.0000
 1616,'1 ',    21.315,    -8.611,    12.737,    -8.611,1.01000,    0,    65.780,   0.00000,   1.00000,   0.00000,   0.00000,1.00000,1,  100.0,    59.800,    17.940,   1,1.0000,   0,1.0000,   0,1.0000,   0,1.0000,1, 1.0000
 1617,'1 ',    53.545,    10.790,    12.780,    -8.640,1.04000,    0,    66.000,   0.00000,   1.00000,   0.00000,   0.00000,1.00000,1,  100.0,    60.000,    18.000,   1,1.0000,   0,1.0000,   0,1.0000,   0,1.0000,1, 1.0000
 1618,'1 ',   200.795,    47.568,    47.925,   -32.400,1.04000,    0,   247.500,   0.00000,   1.00000,   0.00000,   0.00000,1.00000,1,  100.0,   225.000,    67.500,   1,1.0000,   0,1.0000,   0,1.0000,   0,1.0000,1, 1.0000
 1619,'1 ',   133.863,    31.712,    31.950,   -21.600,1.04000,    0,   165.000,   0.00000,   1.00000,   0.00000,   0.00000,1.00000,1,  100.0,   150.000,    45.000,   1,1.0000,   0,1.0000,   0,1.0000,   0,1.0000,1, 1.0000
 1620,'1 ',    60.328,    14.291,    14.399,    -9.734,1.04000,    0,    74.360,   0.00000,   1.00000,   0.00000,   0.00000,1.00000,1,  100.0,    67.600,    20.280,   1,1.0000,   0,1.0000,   0,1.0000,   0,1.0000,1, 1.0000
 1621,'1 ',   427.728,  -100.643,   511.388,  -133.883,1.01000,    0,  1207.140,   0.00000,   1.00000,   0.00000,   0.00000,1.00000,1,  100.0,  1097.400,   329.220,   1,1.0000,   0,1.0000,   0,1.0000,   0,1.0000,0, 1.0000
 1622,'1 ',    87.042,    32.167,   113.378,   -29.683,1.04000,    0,   267.630,   0.00000,   1.00000,   0.00000,   0.00000,1.00000,1,  100.0,   243.300,    72.990,   1,1.0000,   0,1.0000,   0,1.0000,   0,1.0000,0, 1.0000
 1623,'1 ',     0.780,    -0.222,     1.018,    -0.222,1.01000,    0,     2.200,   0.00000,   1.00000,   0.00000,   0.00000,1.00000,1,  100.0,     2.000,     0.600,   1,1.0000,   0,1.0000,   0,1.0000,   0,1.0000,0, 1.0000
...